<configuration>
    <input>
        <net-file value="1k.net.xml"/>
        <route-files value="input_routes.rou.xml"/>
        <additional-files value="input_additional.add.xml"/>
    </input>
    <time>
        <begin value="0"/>
        <end value="3600"/>
        <step-length value="0.1"/>
    </time>
    <output>
        <fcd-output value="output_fcd_indirect.xml"/>
        <detector-output value="output_detector_indirect.xml"/>
    </output>
</configuration> 