<?xml version="1.0" encoding="UTF-8"?>
<routes xmlns:xsi="http://www.w3.org/2001/XMLSchema-instance" xsi:noNamespaceSchemaLocation="http://sumo.dlr.de/xsd/routes_file.xsd">

    <!-- Regular vehicles (keeping original aggressive parameters) -->
    <vType id="regular" carFollowModel="IDM" maxSpeed="44.4" minGap="1" accel="2" decel="3" tau="0.8" length="4.5"/>
    
    <!-- Stabilizing vehicles -->
    <vType id="stable" carFollowModel="IDM" maxSpeed="33.3" minGap="2.5" accel="1.5" decel="1.5" tau="2.0" length="4.5"/>

    <!-- Keep the existing types for reference -->
    <vType id="aggressive" carFollowModel="IDM" maxSpeed="44.4" minGap="1" accel="2" decel="3" tau="0.8" length="4.5"/>
    <vType id="exp_rspsv" carFollowModel="IDM" maxSpeed="33" minGap="2" accel="2" decel="1.5" tau="1.5" length="4.5"/>
    <vType id="relaxed" carFollowModel="IDM" maxSpeed="22" minGap="4" accel="1" decel="2.5" tau="2" length="4.5"/>
    <vType id="exp_dfsv" carFollowModel="IDM" maxSpeed="33" minGap="4" accel="1.5" decel="1.5" tau="2" length="4.5"/>
    <vType id="smoother" carFollowModel="IDM" maxSpeed="10"/>

    <!-- Define vehicle type distribution -->
    <vTypeDistribution id="mixed">
        <!-- <vType id="regular_dist" carFollowModel="IDM" maxSpeed="44.4" minGap="1" accel="2" decel="3" tau="0.8" length="4.5" probability="0.5"/> -->
        <!-- <vType id="stable_dist" carFollowModel="IDM" maxSpeed="33.3" minGap="2.5" accel="1.5" decel="1.5" tau="2.0" length="4.5" probability="0.5"/> -->
        <vType id="aggressive_dist" carFollowModel="IDM" maxSpeed="44.4" minGap="1" accel="2" decel="3" tau="0.8" length="4.5" probability="0.25"/>
        <vType id="exp_rspsv_dist" carFollowModel="IDM" maxSpeed="33" minGap="2" accel="2" decel="1.5" tau="1.5" length="4.5" probability="0.25"/>
        <vType id="relaxed_dist" carFollowModel="IDM" maxSpeed="22" minGap="4" accel="1" decel="2.5" tau="2" length="4.5" probability="0.25"/>
        <vType id="exp_dfsv_dist" carFollowModel="IDM" maxSpeed="33" minGap="4" accel="1.5" decel="1.5" tau="2" length="4.5" probability="0.25"/>
    </vTypeDistribution>

    <!-- Create flow using the distribution -->
    <!-- <flow id="mixed_flow" type="mixed" route="circle" begin="0" end="1" number="50" departPos="last" departSpeed="4.08"/> -->
    <flow id="mixed_flow" type="mixed" route="circle" begin="0" end="1" number="50" departPos="last" departSpeed="4.08"/>

    <!-- add one special vehicle to smooth the traffic -->
    <!-- <vehicle id="veh0" type="smoother" route="circle" depart="5" departPos="last" color="1,1,1"/> -->
</routes>
