<additional xmlns:xsi="http://www.w3.org/2001/XMLSchema-instance" xsi:noNamespaceSchemaLocation="http://sumo.dlr.de/xsd/additional_file.xsd">
    <route id="circle" edges="a b a"/>
    <rerouter id="rerouter" edges="a">
        <interval begin="0" end="2000">
            <routeProbReroute id="circle"/>
        </interval>
    </rerouter>

    <!-- Single loop detector at the middle of the road -->
    <e1Detector id="det_0" lane="a_0" pos="100" freq="10" file="output_detector.out.xml" />
</additional>
